[General]
network = Network

sim-time-limit = 10day

######################################          Field adjustment              #################################################
**.constraintAreaMinX = 0m
**.constraintAreaMinY = 0m
**.constraintAreaMinZ = 0m
**.constraintAreaMaxX = 300m
**.constraintAreaMaxY = 300m
**.constraintAreaMaxZ = 0m
###############################################################################################################################

######################################               Mobility                  ################################################
**.node*.mobility.typename = "MassMobility"
**.node*.mobility.initFromDisplayString = true
**.node*.mobility.changeInterval = truncnormal(2s, 0.5s)
**.node*.mobility.angleDelta = normal(0deg, 10deg)
**.node*.mobility.speed = truncnormal(1mps, 0.5mps)
**.node*.mobility.updateInterval = 100ms
###############################################################################################################################

#######################################             Network layer               ###############################################
**.configurator.config = xml("<config><interface hosts='**' address='10.0.0.x' netmask='255.255.255.0'/><autoroute metric='errorRate'/></config>")
#**.multicastForwarding = false
#**.node*.ipv4.ip.limitedBroadcast = false
#**.node*.ipv4.igmp.enabled = false
*.node*.ipv4.arp.typename = "GlobalArp"
*.node*.ipv4.routingTable.netmaskRoutes = ""
*.node*.forwarding = true
*.configurator.optimizeRoutes = false
###############################################################################################################################

########################################    Application and transport layer     ###############################################
**.node*.hasUdp = true
**.node*.numApps = 1
**.node*.app[*].startTime = 0s
**.node*.app[*].stopTime = 10day
#**.node*.app[*].joinLocalMulticastGroups = true

#**.node*.app[1].typename = "ResilienceUdpApp"
#**.node*.app[1].messageLength = 1B
#**.node*.app[1].sendInterval = 2s
#**.node1.app[1].destAddresses = "224.0.1.1"
#**.node2.app[1].destAddresses = "224.0.1.2"
#**.node3.app[1].destAddresses = "224.0.1.3"
#**.node4.app[1].destAddresses = "224.0.1.4"
#**.node5.app[1].destAddresses = "224.0.1.5"
#**.node*.app[1].destPort = 1024
#**.node*.app[1].localPort = 1024
#**.node*.app[1].multicastInterface = "wlan0"

**.node*.app[0].typename = "UdpBasicApp"
**.node*.app[0].messageLength = 10B
**.node*.app[0].sendInterval = exponential(1s)
**.node1.app[0].destAddresses = "node2 node3 node4 node5"
**.node2.app[0].destAddresses = "node1 node3 node4 node5"
**.node3.app[0].destAddresses = "node1 node2 node4 node5"
**.node4.app[0].destAddresses = "node1 node2 node3 node5"
**.node5.app[0].destAddresses = "node1 node2 node3 node4"
**.node*.app[0].destPort = 1025
**.node*.app[0].localPort = 1025
#################################################################################################################

#######################################       Data link layer  ##################################################
**.node*.numWlanInterfaces = 1
#**.node*.wlan[*].mac.promiscuous = true
**.node*.wlan[*].typename = "AckingWirelessInterface"
**.node*.wlan[*].mac.useAck = false
**.node*.wlan[*].mac.fullDuplex = true
**.node*.wlan[*].bitrate = 10000000000bps
#################################################################################################################

########################################      Physical layer   ##################################################
**.node*.wlan[*].radio.typename = "UnitDiskRadio"
**.node*.wlan[*].radio.transmitter.typename = "UnitDiskTransmitter"
**.node*.wlan[*].radio.transmitter.communicationRange = 150m
**.node*.wlan[*].radio.transmitter.interferenceRange = 0m
**.node*.wlan[*].radio.receiver.typename = "UnitDiskReceiver"
**.wlan[*].radio.displayCommunicationRange = true
**.wlan[0].radio.receiver.ignoreInterference = true
#**.wlan[1].radio.receiver.ignoreInterference = false
**.wlan[*].radio.radioMediumModule = "unitDiskRadioMedium"

*.unitDiskRadioMedium.rangeFilter = "communicationRange"
*.unitDiskRadioMedium.signalAnalogRepresentation = "unitDisk"
#################################################################################################################


########################################      Visualization     ###############################################
*.integratedVisualizer.*.mediumVisualizer.mediumModule = "unitDiskRadioMedium"
#*.integratedVisualizer.*.mediumVisualizer.displaySignals = true
#*.integratedVisualizer.*.mediumVisualizer.packetFilter = "Udp*"
#*.integratedVisualizer.*.mediumVisualizer.signalOpacity = 0.3

#*.integratedVisualizer.canvasVisualizer.transportConnectionVisualizer.displayTransportConnections = true
#*.integratedVisualizer.canvasVisualizer.transportRouteVisualizer.displayRoutes = true

#*.integratedVisualizer.*.infoVisualizer.displayInfos = false
#**.integratedVisualizer.*.mobilityVisualizer.displayPositions = true
#*.integratedVisualizer.canvasVisualizer.statisticVisualizer.signalName = ""

#*.integratedVisualizer.*.interfaceTableVisualizer.displayInterfaceTables = true

#*.integratedVisualizer.*.physicalLinkVisualizer.displayLinks = true
#*.integratedVisualizer.*.physicalLinkVisualizer.packetFilter = "Udp*"

#*.integratedVisualizer.*.dataLinkVisualizer.displayLinks = true
###############################################################################################################

##########################################      Statistics      ################################################
#Default files for vector and scalar statistics recording
output-vector-file = "${resultdir}/${configname}-${runnumber}.vec"
output-scalar-file = "${resultdir}/${configname}-${runnumber}.sca"

**.scalar-recording = true
*.node*.app[*].**.vector-recording = true
**.vector-recording-intervals = 10000..
**.vector-recording = true
#################################################################################################################



